Tesis UCR/Tesis UCR o/Useless/Poasg.cf
 10/11/12 POWER TECHNOLOGIES     50.0 0    0
BUS DATA FOLLOWS                     39 ITEMS
   1 MEDIA         1  1  3 1.0000   0.00     0.00     0.00     3.03    0.40   34.50 1.0000   99.00  -99.00  0.0000  0.0000    0    1
   2 BUS 2         1  1  0 0.9987  -0.04     0.60     0.03     0.00    0.00   34.50 0.0000    0.00    0.00  0.0000  0.0000    0    2
   3 BUS 3         1  1  0 0.9999  -0.01     0.42     0.17     0.00    0.00   34.50 0.0000    0.00    0.00  0.0000  0.0000    0    3
   4 BUS 4         1  1  0 0.9998  -0.01     0.11     0.04     0.00    0.00   34.50 0.0000    0.00    0.00  0.0000  0.0000    0    4
   5 BUS 5         1  1  0 0.9999  -0.01     0.12     0.06     0.00    0.00   34.50 0.0000    0.00    0.00  0.0000  0.0000    0    5
   6 BUS 6         1  1  0 0.9999  -0.01     0.12     0.06     0.00    0.00   34.50 0.0000    0.00    0.00  0.0000  0.0000    0    6
   7 BUS 7         1  1  0 0.9997  -0.03     0.24     0.12     0.00    0.00   34.50 0.0000    0.00    0.00  0.0000  0.0000    0    7
   8 BUS 8         1  1  0 0.9995  -0.04     0.27     0.13     0.00    0.00   34.50 0.0000    0.00    0.00  0.0000  0.0000    0    8
   9 BUS 9         1  1  0 0.9995  -0.04     0.25     0.11     0.00    0.00   34.50 0.0000    0.00    0.00  0.0000  0.0000    0    9
  10 BUS 10        1  1  0 0.9997  -0.04     0.00     0.00     0.00    0.00   34.50 0.0000    0.00    0.00  0.0000  0.0000    0   10
  11 CACAO         1  1  1 1.0000  -0.04     0.00     0.00     0.42    0.16   34.50 1.0000   99.00  -99.00  0.0000  0.0000    0   11
  12 BUS 12        1  1  0 0.9992  -0.04     0.10     0.00     0.00    0.00   34.50 0.0000    0.00    0.00  0.0000  0.0000    0   12
  13 BUS 13        1  1  0 0.9987  -0.04     0.06     0.00     0.00    0.00   34.50 0.0000    0.00    0.00  0.0000  0.0000    0   13
  14 BUS 14        1  1  0 0.9996  -0.08     0.00     0.00     0.00    0.00   34.50 0.0000    0.00    0.00  0.0000  0.0000    0   14
  15 CARILLO       1  1  1 1.0000  -0.08     0.00     0.00     1.00    0.39   34.50 1.0000   99.00  -99.00  0.0000  0.0000    0   15
  16 BUS 16        1  1  0 0.9991  -0.11     0.47     0.16     0.00    0.00   34.50 0.0000    0.00    0.00  0.0000  0.0000    0   16
  17 BUS 17        1  1  0 0.9982  -0.18     0.60     0.00     0.00    0.00   34.50 0.0000    0.00    0.00  0.0000  0.0000    0   17
  18 BUS 18        1  1  0 0.9980  -0.30     0.47     0.16     0.00    0.00   34.50 0.0000    0.00    0.00  0.0000  0.0000    0   18
  19 BUS 19        1  1  0 0.9981  -0.35     0.50     0.24     0.00    0.00   34.50 0.0000    0.00    0.00  0.0000  0.0000    0   19
  20 BUS 20        1  1  0 0.9990  -0.36     0.76     0.25     0.00    0.00   34.50 0.0000    0.00    0.00  0.0000  0.0000    0   20
  21 BUS 21        1  1  0 0.9975  -0.38     1.42     0.64     0.00    0.00   34.50 0.0000    0.00    0.00  0.0000  0.0000    0   21
  22 LOSKOS        1  1  1 1.0000  -0.36     0.00     0.00     1.31    0.51   34.50 1.0000   99.00  -99.00  0.0000  0.0000    0   22
  23 BUS 23        1  1  0 0.9972  -0.03     0.10     0.00     0.00    0.00   34.50 0.0000    0.00    0.00  0.0000  0.0000    0   23
  24 BUS 24        1  1  0 0.9962  -0.10     0.28     0.09     0.00    0.00   34.50 0.0000    0.00    0.00  0.0000  0.0000    0   24
  25 BUS 25        1  1  0 0.9960  -0.11     0.47     0.16     0.00    0.00   34.50 0.0000    0.00    0.00  0.0000  0.0000    0   25
  26 BUS 26        1  1  0 0.9959  -0.12     0.28     0.09     0.00    0.00   34.50 0.0000    0.00    0.00  0.0000  0.0000    0   26
  27 BUS 27        1  1  0 0.9962   0.09     0.19     0.09     0.00    0.00   34.50 0.0000    0.00    0.00  0.0000  0.0000    0   27
  28 BUS 28        1  1  0 0.9959   0.14     0.10     0.00     0.00    0.00   34.50 0.0000    0.00    0.00  0.0000  0.0000    0   28
  29 BUS 29        1  1  0 0.9942   0.41     0.95     0.31     0.00    0.00   34.50 0.0000    0.00    0.00  0.0000  0.0000    0   29
  30 BUS 30        1  1  0 0.9935   0.74     0.60     0.00     0.00    0.00   34.50 0.0000    0.00    0.00  0.0000  0.0000    0   30
  31 BUS 31        1  1  0 0.9934   0.97     0.19     0.06     0.00    0.00   34.50 0.0000    0.00    0.00  0.0000  0.0000    0   31
  32 BUS 32        1  1  0 0.9938   1.23     0.47     0.17     0.00    0.00   34.50 0.0000    0.00    0.00  0.0000  0.0000    0   32
  33 BUS 33        1  1  0 0.9934   1.45     0.52     0.17     0.00    0.00   34.50 0.0000    0.00    0.00  0.0000  0.0000    0   33
  34 BUS 34        1  1  0 0.9942   1.50     0.00     0.00     0.00    0.00   34.50 0.0000    0.00    0.00  0.0000  0.0000    0   34
  35 BUS 35        1  1  0 0.9978   1.98     0.35     0.00     0.00    0.00   34.50 0.0000    0.00    0.00  0.0000  0.0000    0   35
  36 BUS 36        1  1  0 0.9990   2.11     0.00     0.00     0.00    0.00   34.50 0.0000    0.00    0.00  0.0000  0.0000    0   36
  37 VARA BLANCA   1  1  1 1.0000   2.22     0.00     0.00     2.50    0.00   34.50 1.0000   99.00  -99.00  0.0000  0.0000    0   37
  38 SUERKATA      1  1  1 1.0000   2.22     0.00     0.00     2.75    0.07   34.50 1.0000   99.00  -99.00  0.0000  0.0000    0   38
  39 BUS 39        1  1  0 0.9989   2.11     0.14     0.05     0.00    0.00   34.50 0.0000    0.00    0.00  0.0000  0.0000    0   39
-999
BRANCH DATA FOLLOWS                  39 ITEMS
   1    2  0  0 1 0  0.103600  0.064300   0.00035     0     0     0    0 0  0.0000    0.00 0.0000 0.00000.00000  0.0000 0.0000     1
   1    3  0  0 1 0  0.007675  0.015120   0.00011     0     0     0    0 0  0.0000    0.00 0.0000 0.00000.00000  0.0000 0.0000     2
   1    4  0  0 1 0  0.003837  0.007561   0.00006     0     0     0    0 0  0.0000    0.00 0.0000 0.00000.00000  0.0000 0.0000     3
   1    5  0  0 1 0  0.023000  0.045360   0.00034     0     0     0    0 0  0.0000    0.00 0.0000 0.00000.00000  0.0000 0.0000     4
   1    6  0  0 1 0  0.023000  0.045370   0.00034     0     0     0    0 0  0.0000    0.00 0.0000 0.00000.00000  0.0000 0.0000     5
   4    7  0  0 1 0  0.003870  0.007561   0.00006     0     0     0    0 0  0.0000    0.00 0.0000 0.00000.00000  0.0000 0.0000     6
   7    8  0  0 1 0  0.007675  0.015880   0.00011     0     0     0    0 0  0.0000    0.00 0.0000 0.00000.00000  0.0000 0.0000     7
   7   10  0  0 1 2  0.000000  0.010000   0.00000     0     0     0   10 0  1.0000    0.00 0.9000 1.10000.00625  0.9000 1.1000     8
   8    9  0  0 1 0  0.007675  0.015879   0.00011     0     0     0    0 0  0.0000    0.00 0.0000 0.00000.00000  0.0000 0.0000     9
  10   11  0  0 1 0  0.009500  0.010450   0.00000     0     0     0    0 0  0.0000    0.00 0.0000 0.00000.00000  0.0000 0.0000    10
  10   12  0  0 1 0  0.007675  0.015800   0.00010     0     0     0    0 0  0.0000    0.00 0.0000 0.00000.00000  0.0000 0.0000    11
  10   14  0  0 1 0  0.036600  0.022750   0.00012     0     0     0    0 0  0.0000    0.00 0.0000 0.00000.00000  0.0000 0.0000    12
  12   13  0  0 1 0  0.007675  0.015880   0.00010     0     0     0    0 0  0.0000    0.00 0.0000 0.00000.00000  0.0000 0.0000    13
  13   23  0  0 1 0  0.023020  0.047630   0.00032     0     0     0    0 0  0.0000    0.00 0.0000 0.00000.00000  0.0000 0.0000    14
  14   15  0  0 1 0  0.013890  0.008620   0.00005     0     0     0    0 0  0.0000    0.00 0.0000 0.00000.00000  0.0000 0.0000    15
  14   16  0  0 1 0  0.014850  0.016250   0.00010     0     0     0    0 0  0.0000    0.00 0.0000 0.00000.00000  0.0000 0.0000    16
  16   17  0  0 1 0  0.044500  0.048770   0.00031     0     0     0    0 0  0.0000    0.00 0.0000 0.00000.00000  0.0000 0.0000    17
  17   18  0  0 1 0  0.029710  0.032500   0.00020     0     0     0    0 0  0.0000    0.00 0.0000 0.00000.00000  0.0000 0.0000    18
  17   23  0  0 1 0  0.031700  0.066100   0.00040     0     0     0    0 0  0.0000    0.00 0.0000 0.00000.00000  0.0000 0.0000    19
  18   19  0  0 1 0  0.014850  0.016250   0.00010     0     0     0    0 0  0.0000    0.00 0.0000 0.00000.00000  0.0000 0.0000    20
  19   20  0  0 1 0  0.007675  0.015879   0.00011     0     0     0    0 0  0.0000    0.00 0.0000 0.00000.00000  0.0000 0.0000    21
  19   21  0  0 1 0  0.011510  0.023810   0.00016     0     0     0    0 0  0.0000    0.00 0.0000 0.00000.00000  0.0000 0.0000    22
  20   22  0  0 1 0  0.007675  0.015870   0.00011     0     0     0    0 0  0.0000    0.00 0.0000 0.00000.00000  0.0000 0.0000    23
  23   24  0  0 1 0  0.029470  0.060900   0.00041     0     0     0    0 0  0.0000    0.00 0.0000 0.00000.00000  0.0000 0.0000    24
  23   27  0  0 1 0  0.017650  0.036520   0.00025     0     0     0    0 0  0.0000    0.00 0.0000 0.00000.00000  0.0000 0.0000    25
  24   25  0  0 1 0  0.009977  0.020640   0.00014     0     0     0    0 0  0.0000    0.00 0.0000 0.00000.00000  0.0000 0.0000    26
  25   26  0  0 1 0  0.007675  0.015879   0.00011     0     0     0    0 0  0.0000    0.00 0.0000 0.00000.00000  0.0000 0.0000    27
  27   28  0  0 1 0  0.005756  0.011900   0.00008     0     0     0    0 0  0.0000    0.00 0.0000 0.00000.00000  0.0000 0.0000    28
  28   29  0  0 1 0  0.034530  0.071456   0.00049     0     0     0    0 0  0.0000    0.00 0.0000 0.00000.00000  0.0000 0.0000    29
  29   30  0  0 1 0  0.034537  0.071460   0.00048     0     0     0    0 0  0.0000    0.00 0.0000 0.00000.00000  0.0000 0.0000    30
  30   31  0  0 1 0  0.021028  0.041955   0.00029     0     0     0    0 0  0.0000    0.00 0.0000 0.00000.00000  0.0000 0.0000    31
  31   32  0  0 1 0  0.028100  0.043500   0.00030     0     0     0    0 0  0.0000    0.00 0.0000 0.00000.00000  0.0000 0.0000    32
  32   34  0  0 1 0  0.021800  0.043500   0.00030     0     0     0    0 0  0.0000    0.00 0.0000 0.00000.00000  0.0000 0.0000    33
  33   34  0  0 1 0  0.046720  0.093230   0.00065     0     0     0    0 0  0.0000    0.00 0.0000 0.00000.00000  0.0000 0.0000    34
  34   35  0  0 1 0  0.059433  0.065020   0.00041     0     0     0    0 0  0.0000    0.00 0.0000 0.00000.00000  0.0000 0.0000    35
  35   36  0  0 1 0  0.016257  0.016257   0.00001     0     0     0    0 0  0.0000    0.00 0.0000 0.00000.00000  0.0000 0.0000    36
  36   37  0  0 1 0  0.026745  0.029260   0.00000     0     0     0    0 0  0.0000    0.00 0.0000 0.00000.00000  0.0000 0.0000    37
  36   38  0  0 1 0  0.026773  0.026011   0.00000     0     0     0    0 0  0.0000    0.00 0.0000 0.00000.00000  0.0000 0.0000    38
  36   39  0  0 1 0  0.041680  0.025860   0.00014     0     0     0    0 0  0.0000    0.00 0.0000 0.00000.00000  0.0000 0.0000    39
-999
LOSS ZONES FOLLOWS                    0 ITEMS
-99
INTERCHANGE DATA FOLLOWS              1 ITEMS
 1    1 MEDIA            0.0 999.99  0                                                                                             1
-9
TIE LINES FOLLOW                      0 ITEMS
-999
END OF DATA
